[Format]      =  4.0
[Frequency]   =  0
[Precision]   =  1e-008
[MinAngle]    =  30
[DoSmartMesh] =  1
[Depth]       =  20
[LengthUnits] =  millimeters
[ProblemType] =  planar
[Coordinates] =  cartesian
[ACSolver]    =  0
[PrevType]    =  0
[PrevSoln]    =  ""
[Comment]     =  "Add comments here."
[PointProps]   = 0
[BdryProps]   = 2
  <BeginBdry>
    <BdryName> = "Upper Boundary"
    <BdryType> = 0
    <A_0> = 0
    <A_1> = 0
    <A_2> = 0
    <Phi> = 0
    <c0> = 0
    <c0i> = 0
    <c1> = 0
    <c1i> = 0
    <Mu_ssd> = 0
    <Sigma_ssd> = 0
    <innerangle> = 0
    <outerangle> = 0
  <EndBdry>
  <BeginBdry>
    <BdryName> = "Lower Boundary"
    <BdryType> = 0
    <A_0> = 0
    <A_1> = 0
    <A_2> = 0
    <Phi> = 0
    <c0> = 0
    <c0i> = 0
    <c1> = 0
    <c1i> = 0
    <Mu_ssd> = 0
    <Sigma_ssd> = 0
    <innerangle> = 0
    <outerangle> = 0
  <EndBdry>
[BlockProps]  = 4
  <BeginBlock>
    <BlockName> = "Air"
    <Mu_x> = 1
    <Mu_y> = 1
    <H_c> = 0
    <H_cAngle> = 0
    <J_re> = 0
    <J_im> = 0
    <Sigma> = 0
    <d_lam> = 0
    <Phi_h> = 0
    <Phi_hx> = 0
    <Phi_hy> = 0
    <LamType> = 0
    <LamFill> = 1
    <NStrands> = 0
    <WireD> = 0
    <BHPoints> = 0
  <EndBlock>
  <BeginBlock>
    <BlockName> = "N45"
    <Mu_x> = 1.05
    <Mu_y> = 1.05
    <H_c> = 1030272
    <H_cAngle> = 0
    <J_re> = 0
    <J_im> = 0
    <Sigma> = 0.66700000000000004
    <d_lam> = 0
    <Phi_h> = 0
    <Phi_hx> = 0
    <Phi_hy> = 0
    <LamType> = 0
    <LamFill> = 1
    <NStrands> = 0
    <WireD> = 0
    <BHPoints> = 0
  <EndBlock>
  <BeginBlock>
    <BlockName> = "M-19 Steel"
    <Mu_x> = 4416
    <Mu_y> = 4416
    <H_c> = 0
    <H_cAngle> = 0
    <J_re> = 0
    <J_im> = 0
    <Sigma> = 1.8999999999999999
    <d_lam> = 0.63500000000000001
    <Phi_h> = 0
    <Phi_hx> = 0
    <Phi_hy> = 0
    <LamType> = 0
    <LamFill> = 0.97999999999999998
    <NStrands> = 0
    <WireD> = 0
    <BHPoints> = 47
      0	0
      0.050000000000000003	15.120714
      0.10000000000000001	22.718292000000002
      0.14999999999999999	27.842732999999999
      0.20000000000000001	31.871434000000001
      0.25	35.365043999999997
      0.29999999999999999	38.600588000000002
      0.34999999999999998	41.736201999999999
      0.40000000000000002	44.873978999999999
      0.45000000000000001	48.087806999999998
      0.5	51.437235999999999
      0.55000000000000004	54.975220999999998
      0.59999999999999998	58.752992999999996
      0.65000000000000002	62.823644000000002
      0.69999999999999996	67.245284999999996
      0.75	72.084406000000001
      0.80000000000000004	77.420100000000005
      0.84999999999999998	83.350020999999998
      0.90000000000000002	89.999611999999999
      0.94999999999999996	97.537352999999996
      1	106.20140600000001
      1.05	116.34846400000001
      1.1000000000000001	128.54732899999999
      1.1499999999999999	143.76543100000001
      1.2	163.75416899999999
      1.25	191.86815799999999
      1.3	234.833507
      1.3500000000000001	306.50976900000001
      1.3999999999999999	435.255202
      1.45	674.911968
      1.5	1108.3255690000001
      1.55	1813.085468
      1.6000000000000001	2801.2174209999998
      1.6499999999999999	4053.6531169999998
      1.7	5591.10689
      1.75	7448.318413
      1.8	9708.81567
      1.8500000000000001	12486.931615
      1.8999999999999999	16041.483644
      1.95	21249.420623999998
      2	31313.495878000002
      2.0499999999999998	53589.446877000002
      2.1000000000000001	88477.484601000004
      2.1499999999999999	124329.41054
      2.2000000000000002	159968.5693
      2.25	197751.604272
      2.2999999999999998	234024.75134700001
  <EndBlock>
  <BeginBlock>
    <BlockName> = "26 AWG"
    <Mu_x> = 1
    <Mu_y> = 1
    <H_c> = 0
    <H_cAngle> = 0
    <J_re> = 0
    <J_im> = 0
    <Sigma> = 58
    <d_lam> = 0
    <Phi_h> = 0
    <Phi_hx> = 0
    <Phi_hy> = 0
    <LamType> = 3
    <LamFill> = 1
    <NStrands> = 1
    <WireD> = 0.40501891210693097
    <BHPoints> = 0
  <EndBlock>
[CircuitProps]  = 3
  <BeginCircuit>
    <CircuitName> = "Phase A"
    <TotalAmps_re> = 20
    <TotalAmps_im> = 0
    <CircuitType> = 1
  <EndCircuit>
  <BeginCircuit>
    <CircuitName> = "Phase B"
    <TotalAmps_re> = -10
    <TotalAmps_im> = 0
    <CircuitType> = 1
  <EndCircuit>
  <BeginCircuit>
    <CircuitName> = "Phase C"
    <TotalAmps_re> = -10
    <TotalAmps_im> = 0
    <CircuitType> = 1
  <EndCircuit>
[NumPoints] = 554
-6.9663828357000002	45.267090807599999	0	0
-7.0120250449999997	45.563670838199997	0	0
-6.0516887644999997	46.408095599500001	0	0
-7.2080598914999996	55.275865224999997	0	0
-12.1320986565	54.407624336700003	0	0
-10.1857762331	45.679144438199998	0	0
-8.9945450390000001	45.214099073500002	0	0
-8.9359983416999995	44.919794452300003	0	0
-14.721095654100001	43.369682299300003	0	0
-14.8175450375	43.653830926399998	0	0
-14.0184312439	44.6521876232	0	0
-16.697106530599999	53.184434163399999	0	0
-21.395569634499999	51.474333446800003	0	0
-17.963131593899998	43.2164341127	0	0
-16.7092435982	42.965308958100003	0	0
-16.600480895600001	42.685642012700001	0	0
-22.028515430199999	40.154507940499997	0	0
-22.172841422099999	40.417591451699998	0	0
-21.559230783699999	41.539545521000001	0	0
-25.678820036899999	49.477020982299997	0	0
-30.0089470558	46.977020982299997	0	0
-25.194686291	39.4406143052	0	0
-23.916240245899999	39.411039671499999	0	0
-23.760566237799999	39.154507940499997	0	0
-28.666609911999998	35.719259176999998	0	0
-28.854427240100001	35.953283913100002	0	0
-28.444964005599999	37.1647453482	0	0
-33.880295590499998	44.266273555300003	0	0
-37.7105178061	41.0523355069	0	0
-31.6607131942	34.466411389999998	0	0
-30.396554036000001	34.659285887400003	0	0
-30.198698798199999	34.433683957600003	0	0
-34.433683957600003	30.198698798199999	0	0
-34.659285887400003	30.396554036000001	0	0
-34.466411389999998	31.6607131942	0	0
-41.0523355069	37.7105178061	0	0
-44.266273555300003	33.880295590499998	0	0
-37.1647453482	28.444964005599999	0	0
-35.953283913100002	28.854427240100001	0	0
-35.719259176999998	28.666609911999998	0	0
-39.154507940499997	23.760566237799999	0	0
-39.411039671499999	23.916240245899999	0	0
-39.4406143052	25.194686291	0	0
-46.977020982299997	30.0089470558	0	0
-49.477020982299997	25.678820036899999	0	0
-41.539545521000001	21.559230783699999	0	0
-40.417591451699998	22.172841422099999	0	0
-40.154507940499997	22.028515430199999	0	0
-42.685642012700001	16.600480895600001	0	0
-42.965308958100003	16.7092435982	0	0
-43.2164341127	17.963131593899998	0	0
-51.474333446800003	21.395569634499999	0	0
-53.184434163399999	16.697106530599999	0	0
-44.6521876232	14.0184312439	0	0
-43.653830926399998	14.8175450375	0	0
-43.369682299300003	14.721095654100001	0	0
-44.919794452300003	8.9359983416999995	0	0
-45.214099073500002	8.9945450390000001	0	0
-45.679144438199998	10.1857762331	0	0
-54.407624336700003	12.1320986565	0	0
-55.275865224999997	7.2080598914999996	0	0
-46.408095599500001	6.0516887644999997	0	0
-45.563670838199997	7.0120250449999997	0	0
-45.267090807599999	6.9663828357000002	0	0
-45.789081668000001	1	0	0
-46.089081667999999	1.0065517801999999	0	0
-46.753917074699999	2.0989312158	0	0
-55.6877670927	2.5	0	0
-55.6877670927	-2.5	0	0
-46.753917074699999	-2.0989312158	0	0
-46.089081667999999	-1.0065517801999999	0	0
-45.789081668000001	-1	0	0
-45.267090807599999	-6.9663828357000002	0	0
-45.563670838199997	-7.0120250449999997	0	0
-46.408095599500001	-6.0516887644999997	0	0
-55.275865224999997	-7.2080598914999996	0	0
-54.407624336700003	-12.1320986565	0	0
-45.679144438199998	-10.1857762331	0	0
-45.214099073500002	-8.9945450390000001	0	0
-44.919794452300003	-8.9359983416999995	0	0
-43.369682299300003	-14.721095654100001	0	0
-43.653830926399998	-14.8175450375	0	0
-44.6521876232	-14.0184312439	0	0
-53.184434163399999	-16.697106530599999	0	0
-51.474333446800003	-21.395569634499999	0	0
-43.2164341127	-17.963131593899998	0	0
-42.965308958100003	-16.7092435982	0	0
-42.685642012700001	-16.600480895600001	0	0
-40.154507940499997	-22.028515430199999	0	0
-40.417591451699998	-22.172841422099999	0	0
-41.539545521000001	-21.559230783699999	0	0
-49.477020982299997	-25.678820036899999	0	0
-46.977020982299997	-30.0089470558	0	0
-39.4406143052	-25.194686291	0	0
-39.411039671499999	-23.916240245899999	0	0
-39.154507940499997	-23.760566237799999	0	0
-35.719259176999998	-28.666609911999998	0	0
-35.953283913100002	-28.854427240100001	0	0
-37.1647453482	-28.444964005599999	0	0
-44.266273555300003	-33.880295590499998	0	0
-41.0523355069	-37.7105178061	0	0
-34.466411389999998	-31.6607131942	0	0
-34.659285887400003	-30.396554036000001	0	0
-34.433683957600003	-30.198698798199999	0	0
-30.198698798199999	-34.433683957600003	0	0
-30.396554036000001	-34.659285887400003	0	0
-31.6607131942	-34.466411389999998	0	0
-37.7105178061	-41.0523355069	0	0
-33.880295590499998	-44.266273555300003	0	0
-28.444964005599999	-37.1647453482	0	0
-28.854427240100001	-35.953283913100002	0	0
-28.666609911999998	-35.719259176999998	0	0
-23.760566237799999	-39.154507940499997	0	0
-23.916240245899999	-39.411039671499999	0	0
-25.194686291	-39.4406143052	0	0
-30.0089470558	-46.977020982299997	0	0
-25.678820036899999	-49.477020982299997	0	0
-21.559230783699999	-41.539545521000001	0	0
-22.172841422099999	-40.417591451699998	0	0
-22.028515430199999	-40.154507940499997	0	0
-16.600480895600001	-42.685642012700001	0	0
-16.7092435982	-42.965308958100003	0	0
-17.963131593899998	-43.2164341127	0	0
-21.395569634499999	-51.474333446800003	0	0
-16.697106530599999	-53.184434163399999	0	0
-14.0184312439	-44.6521876232	0	0
-14.8175450375	-43.653830926399998	0	0
-14.721095654100001	-43.369682299300003	0	0
-8.9359983416999995	-44.919794452300003	0	0
-8.9945450390000001	-45.214099073500002	0	0
-10.1857762331	-45.679144438199998	0	0
-12.1320986565	-54.407624336700003	0	0
-7.2080598914999996	-55.275865224999997	0	0
-6.0516887644999997	-46.408095599500001	0	0
-7.0120250449999997	-45.563670838199997	0	0
-6.9663828357000002	-45.267090807599999	0	0
-1	-45.789081668000001	0	0
-1.0065517801999999	-46.089081667999999	0	0
-2.0989312158	-46.753917074699999	0	0
-2.5	-55.6877670927	0	0
2.5	-55.6877670927	0	0
2.0989312158	-46.753917074699999	0	0
1.0065517801999999	-46.089081667999999	0	0
1	-45.789081668000001	0	0
6.9663828357000002	-45.267090807599999	0	0
7.0120250449999997	-45.563670838199997	0	0
6.0516887644999997	-46.408095599500001	0	0
7.2080598914999996	-55.275865224999997	0	0
12.1320986565	-54.407624336700003	0	0
10.1857762331	-45.679144438199998	0	0
8.9945450390000001	-45.214099073500002	0	0
8.9359983416999995	-44.919794452300003	0	0
14.721095654100001	-43.369682299300003	0	0
14.8175450375	-43.653830926399998	0	0
14.0184312439	-44.6521876232	0	0
16.697106530599999	-53.184434163399999	0	0
21.395569634499999	-51.474333446800003	0	0
17.963131593899998	-43.2164341127	0	0
16.7092435982	-42.965308958100003	0	0
16.600480895600001	-42.685642012700001	0	0
22.028515430199999	-40.154507940499997	0	0
22.172841422099999	-40.417591451699998	0	0
21.559230783699999	-41.539545521000001	0	0
25.678820036899999	-49.477020982299997	0	0
30.0089470558	-46.977020982299997	0	0
25.194686291	-39.4406143052	0	0
23.916240245899999	-39.411039671499999	0	0
23.760566237799999	-39.154507940499997	0	0
28.666609911999998	-35.719259176999998	0	0
28.854427240100001	-35.953283913100002	0	0
28.444964005599999	-37.1647453482	0	0
33.880295590499998	-44.266273555300003	0	0
37.7105178061	-41.0523355069	0	0
31.6607131942	-34.466411389999998	0	0
30.396554036000001	-34.659285887400003	0	0
30.198698798199999	-34.433683957600003	0	0
34.433683957600003	-30.198698798199999	0	0
34.659285887400003	-30.396554036000001	0	0
34.466411389999998	-31.6607131942	0	0
41.0523355069	-37.7105178061	0	0
44.266273555300003	-33.880295590499998	0	0
37.1647453482	-28.444964005599999	0	0
35.953283913100002	-28.854427240100001	0	0
35.719259176999998	-28.666609911999998	0	0
39.154507940499997	-23.760566237799999	0	0
39.411039671499999	-23.916240245899999	0	0
39.4406143052	-25.194686291	0	0
46.977020982299997	-30.0089470558	0	0
49.477020982299997	-25.678820036899999	0	0
41.539545521000001	-21.559230783699999	0	0
40.417591451699998	-22.172841422099999	0	0
40.154507940499997	-22.028515430199999	0	0
42.685642012700001	-16.600480895600001	0	0
42.965308958100003	-16.7092435982	0	0
43.2164341127	-17.963131593899998	0	0
51.474333446800003	-21.395569634499999	0	0
53.184434163399999	-16.697106530599999	0	0
44.6521876232	-14.0184312439	0	0
43.653830926399998	-14.8175450375	0	0
43.369682299300003	-14.721095654100001	0	0
44.919794452300003	-8.9359983416999995	0	0
45.214099073500002	-8.9945450390000001	0	0
45.679144438199998	-10.1857762331	0	0
54.407624336700003	-12.1320986565	0	0
55.275865224999997	-7.2080598914999996	0	0
46.408095599500001	-6.0516887644999997	0	0
45.563670838199997	-7.0120250449999997	0	0
45.267090807599999	-6.9663828357000002	0	0
45.789081668000001	-1	0	0
46.089081667999999	-1.0065517801999999	0	0
46.753917074699999	-2.0989312158	0	0
55.6877670927	-2.5	0	0
55.6877670927	2.5	0	0
46.753917074699999	2.0989312158	0	0
46.089081667999999	1.0065517801999999	0	0
45.789081668000001	1	0	0
45.267090807599999	6.9663828357000002	0	0
45.563670838199997	7.0120250449999997	0	0
46.408095599500001	6.0516887644999997	0	0
55.275865224999997	7.2080598914999996	0	0
54.407624336700003	12.1320986565	0	0
45.679144438199998	10.1857762331	0	0
45.214099073500002	8.9945450390000001	0	0
44.919794452300003	8.9359983416999995	0	0
43.369682299300003	14.721095654100001	0	0
43.653830926399998	14.8175450375	0	0
44.6521876232	14.0184312439	0	0
53.184434163399999	16.697106530599999	0	0
51.474333446800003	21.395569634499999	0	0
43.2164341127	17.963131593899998	0	0
42.965308958100003	16.7092435982	0	0
42.685642012700001	16.600480895600001	0	0
40.154507940499997	22.028515430199999	0	0
40.417591451699998	22.172841422099999	0	0
41.539545521000001	21.559230783699999	0	0
49.477020982299997	25.678820036899999	0	0
46.977020982299997	30.0089470558	0	0
39.4406143052	25.194686291	0	0
39.411039671499999	23.916240245899999	0	0
39.154507940499997	23.760566237799999	0	0
35.719259176999998	28.666609911999998	0	0
35.953283913100002	28.854427240100001	0	0
37.1647453482	28.444964005599999	0	0
44.266273555300003	33.880295590499998	0	0
41.0523355069	37.7105178061	0	0
34.466411389999998	31.6607131942	0	0
34.659285887400003	30.396554036000001	0	0
34.433683957600003	30.198698798199999	0	0
30.198698798199999	34.433683957600003	0	0
30.396554036000001	34.659285887400003	0	0
31.6607131942	34.466411389999998	0	0
37.7105178061	41.0523355069	0	0
33.880295590499998	44.266273555300003	0	0
28.444964005599999	37.1647453482	0	0
28.854427240100001	35.953283913100002	0	0
28.666609911999998	35.719259176999998	0	0
23.760566237799999	39.154507940499997	0	0
23.916240245899999	39.411039671499999	0	0
25.194686291	39.4406143052	0	0
30.0089470558	46.977020982299997	0	0
25.678820036899999	49.477020982299997	0	0
21.559230783699999	41.539545521000001	0	0
22.172841422099999	40.417591451699998	0	0
22.028515430199999	40.154507940499997	0	0
16.600480895600001	42.685642012700001	0	0
16.7092435982	42.965308958100003	0	0
17.963131593899998	43.2164341127	0	0
21.395569634499999	51.474333446800003	0	0
16.697106530599999	53.184434163399999	0	0
14.0184312439	44.6521876232	0	0
14.8175450375	43.653830926399998	0	0
14.721095654100001	43.369682299300003	0	0
8.9359983416999995	44.919794452300003	0	0
8.9945450390000001	45.214099073500002	0	0
10.1857762331	45.679144438199998	0	0
12.1320986565	54.407624336700003	0	0
7.2080598914999996	55.275865224999997	0	0
6.0516887644999997	46.408095599500001	0	0
7.0120250449999997	45.563670838199997	0	0
6.9663828357000002	45.267090807599999	0	0
1	45.789081668000001	0	0
1.0065517801999999	46.089081667999999	0	0
2.0989312158	46.753917074699999	0	0
2.5	55.6877670927	0	0
-2.5	55.6877670927	0	0
-2.0989312158	46.753917074699999	0	0
-1.0065517801999999	46.089081667999999	0	0
-1	45.789081668000001	0	0
26.138154338	21.205664058299998	0	1
39.929286869099997	17.5103412339	0	1
24.202239284000001	23.141579112300001	0	1
25.2628994558	24.202239284000001	0	1
26.914611473299999	22.5505272666	0	1
39.1032555006	19.2845899426	0	1
33.477135035300002	-3.4877973248999998	0	1
40.615950540500002	-15.8525884857	0	1
33.477135035300002	-0.75	0	1
34.977135035300002	-0.75	0	1
34.977135035300002	-3.0858735361999998	0	1
41.286441451800002	-14.013912810100001	0	1
-33.477135035300002	3.4877973248999998	0	1
-40.615950540500002	15.8525884857	0	1
-33.477135035300002	0.75	0	1
-34.977135035300002	0.75	0	1
-34.977135035300002	3.0858735361999998	0	1
-41.286441451800002	14.013912810100001	0	1
-21.205664058299998	26.138154338	0	1
-17.5103412339	39.929286869099997	0	1
-23.141579112300001	24.202239284000001	0	1
-24.202239284000001	25.2628994558	0	1
-22.5505272666	26.914611473299999	0	1
-19.2845899426	39.1032555006	0	1
3.4877973248999998	33.477135035300002	0	1
15.8525884857	40.615950540500002	0	1
0.75	33.477135035300002	0	1
0.75	34.977135035300002	0	1
3.0858735361999998	34.977135035300002	0	1
14.013912810100001	41.286441451800002	0	1
-3.4877973248999998	-33.477135035300002	0	1
-15.8525884857	-40.615950540500002	0	1
-0.75	-33.477135035300002	0	1
-0.75	-34.977135035300002	0	1
-3.0858735361999998	-34.977135035300002	0	1
-14.013912810100001	-41.286441451800002	0	1
-26.138154338	-21.205664058299998	0	1
-39.929286869099997	-17.5103412339	0	1
-24.202239284000001	-23.141579112300001	0	1
-25.2628994558	-24.202239284000001	0	1
-26.914611473299999	-22.5505272666	0	1
-39.1032555006	-19.2845899426	0	1
21.205664058299998	-26.138154338	0	1
17.5103412339	-39.929286869099997	0	1
23.141579112300001	-24.202239284000001	0	1
24.202239284000001	-25.2628994558	0	1
22.5505272666	-26.914611473299999	0	1
19.2845899426	-39.1032555006	0	1
-21.860973197700002	36.442728242199998	0	1
-22.991106414499999	36.745546525000002	0	1
-23.895390474799999	27.691068608599998	0	1
-21.6488411634	36.075304780800003	0	1
-25.392947153000001	27.781754856999999	0	1
-24.262813936299999	27.478936574199999	0	1
-23.3585298759	36.533414490600002	0	1
-25.605079187400001	28.149178318400001	0	1
-27.478936574199999	24.262813936299999	0	1
-27.781754856999999	25.392947153000001	0	1
-36.075304780800003	21.6488411634	0	1
-27.691068608599998	23.895390474799999	0	1
-36.745546525000002	22.991106414499999	0	1
-36.442728242199998	21.860973197700002	0	1
-28.149178318400001	25.605079187400001	0	1
-36.533414490600002	23.3585298759	0	1
-36.477135035300002	2.6839497475999998	0	1
-40.817135035299998	10.2010502524	0	1
-37.600192378899997	1.6891421263999999	0	1
-36.586942656399998	2.2741421264000001	0	1
-42.350000000000001	9.3160502524000002	0	1
-38.009999999999998	1.7989497476	0	1
-41.226942656399999	10.3108578736	0	1
-42.240192378899998	9.7258578736000008	0	1
-36.586942656399998	-2.2741421264000001	0	1
-37.600192378899997	-1.6891421263999999	0	1
-40.817135035299998	-10.2010502524	0	1
-36.477135035300002	-2.6839497475999998	0	1
-42.240192378899998	-9.7258578736000008	0	1
-41.226942656399999	-10.3108578736	0	1
-38.009999999999998	-1.7989497476	0	1
-42.350000000000001	-9.3160502524000002	0	1
-36.533414490600002	-23.3585298759	0	1
-28.149178318400001	-25.605079187400001	0	1
-36.442728242199998	-21.860973197700002	0	1
-36.745546525000002	-22.991106414499999	0	1
-27.691068608599998	-23.895390474799999	0	1
-36.075304780800003	-21.6488411634	0	1
-27.781754856999999	-25.392947153000001	0	1
-27.478936574199999	-24.262813936299999	0	1
-24.262813936299999	-27.478936574199999	0	1
-25.392947153000001	-27.781754856999999	0	1
-21.6488411634	-36.075304780800003	0	1
-23.895390474799999	-27.691068608599998	0	1
-22.991106414499999	-36.745546525000002	0	1
-21.860973197700002	-36.442728242199998	0	1
-25.605079187400001	-28.149178318400001	0	1
-23.3585298759	-36.533414490600002	0	1
-10.3108578736	-41.226942656399999	0	1
-9.7258578736000008	-42.240192378899998	0	1
-2.6839497475999998	-36.477135035300002	0	1
-10.2010502524	-40.817135035299998	0	1
-1.6891421263999999	-37.600192378899997	0	1
-2.2741421264000001	-36.586942656399998	0	1
-9.3160502524000002	-42.350000000000001	0	1
-1.7989497476	-38.009999999999998	0	1
10.2010502524	-40.817135035299998	0	1
2.6839497475999998	-36.477135035300002	0	1
9.7258578736000008	-42.240192378899998	0	1
10.3108578736	-41.226942656399999	0	1
1.7989497476	-38.009999999999998	0	1
9.3160502524000002	-42.350000000000001	0	1
2.2741421264000001	-36.586942656399998	0	1
1.6891421263999999	-37.600192378899997	0	1
23.3585298759	-36.533414490600002	0	1
25.605079187400001	-28.149178318400001	0	1
21.860973197700002	-36.442728242199998	0	1
22.991106414499999	-36.745546525000002	0	1
23.895390474799999	-27.691068608599998	0	1
21.6488411634	-36.075304780800003	0	1
25.392947153000001	-27.781754856999999	0	1
24.262813936299999	-27.478936574199999	0	1
28.149178318400001	-25.605079187400001	0	1
36.533414490600002	-23.3585298759	0	1
27.478936574199999	-24.262813936299999	0	1
27.781754856999999	-25.392947153000001	0	1
36.075304780800003	-21.6488411634	0	1
27.691068608599998	-23.895390474799999	0	1
36.745546525000002	-22.991106414499999	0	1
36.442728242199998	-21.860973197700002	0	1
41.226942656399999	-10.3108578736	0	1
42.240192378899998	-9.7258578736000008	0	1
36.477135035300002	-2.6839497475999998	0	1
40.817135035299998	-10.2010502524	0	1
37.600192378899997	-1.6891421263999999	0	1
36.586942656399998	-2.2741421264000001	0	1
42.350000000000001	-9.3160502524000002	0	1
38.009999999999998	-1.7989497476	0	1
38.009999999999998	1.7989497476	0	1
42.350000000000001	9.3160502524000002	0	1
36.586942656399998	2.2741421264000001	0	1
37.600192378899997	1.6891421263999999	0	1
40.817135035299998	10.2010502524	0	1
36.477135035300002	2.6839497475999998	0	1
42.240192378899998	9.7258578736000008	0	1
41.226942656399999	10.3108578736	0	1
36.442728242199998	21.860973197700002	0	1
36.745546525000002	22.991106414499999	0	1
27.691068608599998	23.895390474799999	0	1
36.075304780800003	21.6488411634	0	1
27.781754856999999	25.392947153000001	0	1
27.478936574199999	24.262813936299999	0	1
36.533414490600002	23.3585298759	0	1
28.149178318400001	25.605079187400001	0	1
24.262813936299999	27.478936574199999	0	1
25.392947153000001	27.781754856999999	0	1
21.6488411634	36.075304780800003	0	1
23.895390474799999	27.691068608599998	0	1
22.991106414499999	36.745546525000002	0	1
21.860973197700002	36.442728242199998	0	1
25.605079187400001	28.149178318400001	0	1
23.3585298759	36.533414490600002	0	1
10.3108578736	41.226942656399999	0	1
9.7258578736000008	42.240192378899998	0	1
2.6839497475999998	36.477135035300002	0	1
10.2010502524	40.817135035299998	0	1
1.6891421263999999	37.600192378899997	0	1
2.2741421264000001	36.586942656399998	0	1
9.3160502524000002	42.350000000000001	0	1
1.7989497476	38.009999999999998	0	1
-10.2010502524	40.817135035299998	0	1
-2.6839497475999998	36.477135035300002	0	1
-9.7258578736000008	42.240192378899998	0	1
-10.3108578736	41.226942656399999	0	1
-1.7989497476	38.009999999999998	0	1
-9.3160502524000002	42.350000000000001	0	1
-2.2741421264000001	36.586942656399998	0	1
-1.6891421263999999	37.600192378899997	0	1
-39.1032555006	19.2845899426	0	1
-26.914611473299999	22.5505272666	0	1
-25.2628994558	24.202239284000001	0	1
-24.202239284000001	23.141579112300001	0	1
-26.138154338	21.205664058299998	0	1
-39.929286869099997	17.5103412339	0	1
14.013912810100001	-41.286441451800002	0	1
3.0858735361999998	-34.977135035300002	0	1
0.75	-34.977135035300002	0	1
0.75	-33.477135035300002	0	1
3.4877973248999998	-33.477135035300002	0	1
15.8525884857	-40.615950540500002	0	1
39.1032555006	-19.2845899426	0	1
26.914611473299999	-22.5505272666	0	1
25.2628994558	-24.202239284000001	0	1
24.202239284000001	-23.141579112300001	0	1
26.138154338	-21.205664058299998	0	1
39.929286869099997	-17.5103412339	0	1
-41.286441451800002	-14.013912810100001	0	1
-34.977135035300002	-3.0858735361999998	0	1
-34.977135035300002	-0.75	0	1
-33.477135035300002	-0.75	0	1
-33.477135035300002	-3.4877973248999998	0	1
-40.615950540500002	-15.8525884857	0	1
-19.2845899426	-39.1032555006	0	1
-22.5505272666	-26.914611473299999	0	1
-24.202239284000001	-25.2628994558	0	1
-23.141579112300001	-24.202239284000001	0	1
-21.205664058299998	-26.138154338	0	1
-17.5103412339	-39.929286869099997	0	1
19.2845899426	39.1032555006	0	1
22.5505272666	26.914611473299999	0	1
24.202239284000001	25.2628994558	0	1
23.141579112300001	24.202239284000001	0	1
21.205664058299998	26.138154338	0	1
17.5103412339	39.929286869099997	0	1
-14.013912810100001	41.286441451800002	0	1
-3.0858735361999998	34.977135035300002	0	1
-0.75	34.977135035300002	0	1
-0.75	33.477135035300002	0	1
-3.4877973248999998	33.477135035300002	0	1
-15.8525884857	40.615950540500002	0	1
41.286441451800002	14.013912810100001	0	1
34.977135035300002	3.0858735361999998	0	1
34.977135035300002	0.75	0	1
33.477135035300002	0.75	0	1
33.477135035300002	3.4877973248999998	0	1
40.615950540500002	15.8525884857	0	1
63.999999999999993	0	0	0
-63.999999999999993	0	0	0
-10.124126000093989	57.416771723954234	0	0
-19.940635554786738	54.786445916320801	0	0
-29.151258988526507	50.49146167275515	0	0
-37.476136169167511	44.662319916126819	0	0
-44.662319916126819	37.476136169167511	0	0
-50.49146167275515	29.151258988526507	0	0
-54.786445916320801	19.940635554786738	0	0
-57.416771723954234	10.124126000093989	0	0
-58.302517977053007	3.0647006304066807e-016	0	0
-57.416771723954234	-10.124126000093989	0	0
-54.786445916320801	-19.940635554786738	0	0
-50.49146167275515	-29.151258988526507	0	0
-44.662319916126819	-37.476136169167511	0	0
-37.476136169167511	-44.662319916126819	0	0
-29.151258988526507	-50.49146167275515	0	0
-19.940635554786738	-54.786445916320801	0	0
-10.124126000093989	-57.416771723954234	0	0
-4.5970509456100209e-016	-58.302517977053007	0	0
10.124126000093987	-57.416771723954227	0	0
19.940635554786734	-54.786445916320794	0	0
29.151258988526504	-50.49146167275515	0	0
37.476136169167503	-44.662319916126812	0	0
44.662319916126819	-37.476136169167518	0	0
50.49146167275515	-29.151258988526507	0	0
54.786445916320794	-19.940635554786734	0	0
57.416771723954227	-10.124126000093991	0	0
58.302517977053007	-6.1294012608133615e-016	0	0
57.416771723954227	10.124126000093987	0	0
54.786445916320801	19.940635554786738	0	0
50.49146167275515	29.151258988526504	0	0
44.662319916126819	37.476136169167511	0	0
37.476136169167511	44.662319916126819	0	0
29.151258988526504	50.49146167275515	0	0
19.940635554786738	54.786445916320794	0	0
10.124126000093989	57.416771723954227	0	0
7.6617515760167021e-016	58.302517977053007	0	0
45.000000000000007	0	0	1
-45.000000000000007	0	0	1
7.5	0	0	1
-7.5	0	0	1
[NumSegments] = 432
0	1	-1	0	0	0
1	2	-1	0	0	0
2	3	-1	0	0	0
4	5	-1	0	0	0
5	6	-1	0	0	0
6	7	-1	0	0	0
8	9	-1	0	0	0
9	10	-1	0	0	0
10	11	-1	0	0	0
12	13	-1	0	0	0
13	14	-1	0	0	0
14	15	-1	0	0	0
16	17	-1	0	0	0
17	18	-1	0	0	0
18	19	-1	0	0	0
20	21	-1	0	0	0
21	22	-1	0	0	0
22	23	-1	0	0	0
24	25	-1	0	0	0
25	26	-1	0	0	0
26	27	-1	0	0	0
28	29	-1	0	0	0
29	30	-1	0	0	0
30	31	-1	0	0	0
32	33	-1	0	0	0
33	34	-1	0	0	0
34	35	-1	0	0	0
36	37	-1	0	0	0
37	38	-1	0	0	0
38	39	-1	0	0	0
40	41	-1	0	0	0
41	42	-1	0	0	0
42	43	-1	0	0	0
44	45	-1	0	0	0
45	46	-1	0	0	0
46	47	-1	0	0	0
48	49	-1	0	0	0
49	50	-1	0	0	0
50	51	-1	0	0	0
52	53	-1	0	0	0
53	54	-1	0	0	0
54	55	-1	0	0	0
56	57	-1	0	0	0
57	58	-1	0	0	0
58	59	-1	0	0	0
60	61	-1	0	0	0
61	62	-1	0	0	0
62	63	-1	0	0	0
64	65	-1	0	0	0
65	66	-1	0	0	0
66	67	-1	0	0	0
68	69	-1	0	0	0
69	70	-1	0	0	0
70	71	-1	0	0	0
72	73	-1	0	0	0
73	74	-1	0	0	0
74	75	-1	0	0	0
76	77	-1	0	0	0
77	78	-1	0	0	0
78	79	-1	0	0	0
80	81	-1	0	0	0
81	82	-1	0	0	0
82	83	-1	0	0	0
84	85	-1	0	0	0
85	86	-1	0	0	0
86	87	-1	0	0	0
88	89	-1	0	0	0
89	90	-1	0	0	0
90	91	-1	0	0	0
92	93	-1	0	0	0
93	94	-1	0	0	0
94	95	-1	0	0	0
96	97	-1	0	0	0
97	98	-1	0	0	0
98	99	-1	0	0	0
100	101	-1	0	0	0
101	102	-1	0	0	0
102	103	-1	0	0	0
104	105	-1	0	0	0
105	106	-1	0	0	0
106	107	-1	0	0	0
108	109	-1	0	0	0
109	110	-1	0	0	0
110	111	-1	0	0	0
112	113	-1	0	0	0
113	114	-1	0	0	0
114	115	-1	0	0	0
116	117	-1	0	0	0
117	118	-1	0	0	0
118	119	-1	0	0	0
120	121	-1	0	0	0
121	122	-1	0	0	0
122	123	-1	0	0	0
124	125	-1	0	0	0
125	126	-1	0	0	0
126	127	-1	0	0	0
128	129	-1	0	0	0
129	130	-1	0	0	0
130	131	-1	0	0	0
132	133	-1	0	0	0
133	134	-1	0	0	0
134	135	-1	0	0	0
136	137	-1	0	0	0
137	138	-1	0	0	0
138	139	-1	0	0	0
140	141	-1	0	0	0
141	142	-1	0	0	0
142	143	-1	0	0	0
144	145	-1	0	0	0
145	146	-1	0	0	0
146	147	-1	0	0	0
148	149	-1	0	0	0
149	150	-1	0	0	0
150	151	-1	0	0	0
152	153	-1	0	0	0
153	154	-1	0	0	0
154	155	-1	0	0	0
156	157	-1	0	0	0
157	158	-1	0	0	0
158	159	-1	0	0	0
160	161	-1	0	0	0
161	162	-1	0	0	0
162	163	-1	0	0	0
164	165	-1	0	0	0
165	166	-1	0	0	0
166	167	-1	0	0	0
168	169	-1	0	0	0
169	170	-1	0	0	0
170	171	-1	0	0	0
172	173	-1	0	0	0
173	174	-1	0	0	0
174	175	-1	0	0	0
176	177	-1	0	0	0
177	178	-1	0	0	0
178	179	-1	0	0	0
180	181	-1	0	0	0
181	182	-1	0	0	0
182	183	-1	0	0	0
184	185	-1	0	0	0
185	186	-1	0	0	0
186	187	-1	0	0	0
188	189	-1	0	0	0
189	190	-1	0	0	0
190	191	-1	0	0	0
192	193	-1	0	0	0
193	194	-1	0	0	0
194	195	-1	0	0	0
196	197	-1	0	0	0
197	198	-1	0	0	0
198	199	-1	0	0	0
200	201	-1	0	0	0
201	202	-1	0	0	0
202	203	-1	0	0	0
204	205	-1	0	0	0
205	206	-1	0	0	0
206	207	-1	0	0	0
208	209	-1	0	0	0
209	210	-1	0	0	0
210	211	-1	0	0	0
212	213	-1	0	0	0
213	214	-1	0	0	0