[Format]      =  4.0
[Frequency]   =  0
[Precision]   =  1e-008
[MinAngle]    =  30
[DoSmartMesh] =  1
[Depth]       =  20
[LengthUnits] =  millimeters
[ProblemType] =  planar
[Coordinates] =  cartesian
[ACSolver]    =  0
[PrevType]    =  0
[PrevSoln]    =  ""
[Comment]     =  "Add comments here."
[PointProps]   = 0
[BdryProps]   = 2
  <BeginBdry>
    <BdryName> = "Upper Boundary"
    <BdryType> = 0
    <A_0> = 0
    <A_1> = 0
    <A_2> = 0
    <Phi> = 0
    <c0> = 0
    <c0i> = 0
    <c1> = 0
    <c1i> = 0
    <Mu_ssd> = 0
    <Sigma_ssd> = 0
    <innerangle> = 0
    <outerangle> = 0
  <EndBdry>
  <BeginBdry>
    <BdryName> = "Lower Boundary"
    <BdryType> = 0
    <A_0> = 0
    <A_1> = 0
    <A_2> = 0
    <Phi> = 0
    <c0> = 0
    <c0i> = 0
    <c1> = 0
    <c1i> = 0
    <Mu_ssd> = 0
    <Sigma_ssd> = 0
    <innerangle> = 0
    <outerangle> = 0
  <EndBdry>
[BlockProps]  = 4
  <BeginBlock>
    <BlockName> = "Air"
    <Mu_x> = 1
    <Mu_y> = 1
    <H_c> = 0
    <H_cAngle> = 0
    <J_re> = 0
    <J_im> = 0
    <Sigma> = 0
    <d_lam> = 0
    <Phi_h> = 0
    <Phi_hx> = 0
    <Phi_hy> = 0
    <LamType> = 0
    <LamFill> = 1
    <NStrands> = 0
    <WireD> = 0
    <BHPoints> = 0
  <EndBlock>
  <BeginBlock>
    <BlockName> = "N45"
    <Mu_x> = 1.05
    <Mu_y> = 1.05
    <H_c> = 1030272
    <H_cAngle> = 0
    <J_re> = 0
    <J_im> = 0
    <Sigma> = 0.66700000000000004
    <d_lam> = 0
    <Phi_h> = 0
    <Phi_hx> = 0
    <Phi_hy> = 0
    <LamType> = 0
    <LamFill> = 1
    <NStrands> = 0
    <WireD> = 0
    <BHPoints> = 0
  <EndBlock>
  <BeginBlock>
    <BlockName> = "M-19 Steel"
    <Mu_x> = 4416
    <Mu_y> = 4416
    <H_c> = 0
    <H_cAngle> = 0
    <J_re> = 0
    <J_im> = 0
    <Sigma> = 1.8999999999999999
    <d_lam> = 0.63500000000000001
    <Phi_h> = 0
    <Phi_hx> = 0
    <Phi_hy> = 0
    <LamType> = 0
    <LamFill> = 0.97999999999999998
    <NStrands> = 0
    <WireD> = 0
    <BHPoints> = 47
      0	0
      0.050000000000000003	15.120714
      0.10000000000000001	22.718292000000002
      0.14999999999999999	27.842732999999999
      0.20000000000000001	31.871434000000001
      0.25	35.365043999999997
      0.29999999999999999	38.600588000000002
      0.34999999999999998	41.736201999999999
      0.40000000000000002	44.873978999999999
      0.45000000000000001	48.087806999999998
      0.5	51.437235999999999
      0.55000000000000004	54.975220999999998
      0.59999999999999998	58.752992999999996
      0.65000000000000002	62.823644000000002
      0.69999999999999996	67.245284999999996
      0.75	72.084406000000001
      0.80000000000000004	77.420100000000005
      0.84999999999999998	83.350020999999998
      0.90000000000000002	89.999611999999999
      0.94999999999999996	97.537352999999996
      1	106.20140600000001
      1.05	116.34846400000001
      1.1000000000000001	128.54732899999999
      1.1499999999999999	143.76543100000001
      1.2	163.75416899999999
      1.25	191.86815799999999
      1.3	234.833507
      1.3500000000000001	306.50976900000001
      1.3999999999999999	435.255202
      1.45	674.911968
      1.5	1108.3255690000001
      1.55	1813.085468
      1.6000000000000001	2801.2174209999998
      1.6499999999999999	4053.6531169999998
      1.7	5591.10689
      1.75	7448.318413
      1.8	9708.81567
      1.8500000000000001	12486.931615
      1.8999999999999999	16041.483644
      1.95	21249.420623999998
      2	31313.495878000002
      2.0499999999999998	53589.446877000002
      2.1000000000000001	88477.484601000004
      2.1499999999999999	124329.41054
      2.2000000000000002	159968.5693
      2.25	197751.604272
      2.2999999999999998	234024.75134700001
  <EndBlock>
  <BeginBlock>
    <BlockName> = "26 AWG"
    <Mu_x> = 1
    <Mu_y> = 1
    <H_c> = 0
    <H_cAngle> = 0
    <J_re> = 0
    <J_im> = 0
    <Sigma> = 58
    <d_lam> = 0
    <Phi_h> = 0
    <Phi_hx> = 0
    <Phi_hy> = 0
    <LamType> = 3
    <LamFill> = 1
    <NStrands> = 1
    <WireD> = 0.40501891210693097
    <BHPoints> = 0
  <EndBlock>
[CircuitProps]  = 3
  <BeginCircuit>
    <CircuitName> = "Phase A"
    <TotalAmps_re> = 5
    <TotalAmps_im> = 0
    <CircuitType> = 1
  <EndCircuit>
  <BeginCircuit>
    <CircuitName> = "Phase B"
    <TotalAmps_re> = -2.5
    <TotalAmps_im> = 0
    <CircuitType> = 1
  <EndCircuit>
  <BeginCircuit>
    <CircuitName> = "Phase C"
    <TotalAmps_re> = -2.5
    <TotalAmps_im> = 0
    <CircuitType> = 1
  <EndCircuit>
[NumPoints] = 458
-2.2741421264000001	36.586942656399998	0	0
-1.6891421263999999	37.600192378899997	0	0
-1.7989497476	38.009999999999998	0	0
-9.3160502524000002	42.350000000000001	0	0
-9.7258578736000008	42.240192378899998	0	0
-10.3108578736	41.226942656399999	0	0
-10.2010502524	40.817135035299998	0	0
-2.6839497475999998	36.477135035300002	0	0
9.3160502524000002	42.350000000000001	0	0
1.7989497476	38.009999999999998	0	0
1.6891421263999999	37.600192378899997	0	0
2.2741421264000001	36.586942656399998	0	0
2.6839497475999998	36.477135035300002	0	0
10.2010502524	40.817135035299998	0	0
10.3108578736	41.226942656399999	0	0
9.7258578736000008	42.240192378899998	0	0
25.605079187400001	28.149178318400001	0	0
23.3585298759	36.533414490600002	0	0
22.991106414499999	36.745546525000002	0	0
21.860973197700002	36.442728242199998	0	0
21.6488411634	36.075304780800003	0	0
23.895390474799999	27.691068608599998	0	0
24.262813936299999	27.478936574199999	0	0
25.392947153000001	27.781754856999999	0	0
36.533414490600002	23.3585298759	0	0
28.149178318400001	25.605079187400001	0	0
27.781754856999999	25.392947153000001	0	0
27.478936574199999	24.262813936299999	0	0
27.691068608599998	23.895390474799999	0	0
36.075304780800003	21.6488411634	0	0
36.442728242199998	21.860973197700002	0	0
36.745546525000002	22.991106414499999	0	0
42.240192378899998	9.7258578736000008	0	0
41.226942656399999	10.3108578736	0	0
40.817135035299998	10.2010502524	0	0
36.477135035300002	2.6839497475999998	0	0
36.586942656399998	2.2741421264000001	0	0
37.600192378899997	1.6891421263999999	0	0
38.009999999999998	1.7989497476	0	0
42.350000000000001	9.3160502524000002	0	0
42.350000000000001	-9.3160502524000002	0	0
38.009999999999998	-1.7989497476	0	0
37.600192378899997	-1.6891421263999999	0	0
36.586942656399998	-2.2741421264000001	0	0
36.477135035300002	-2.6839497475999998	0	0
40.817135035299998	-10.2010502524	0	0
41.226942656399999	-10.3108578736	0	0
42.240192378899998	-9.7258578736000008	0	0
36.745546525000002	-22.991106414499999	0	0
36.442728242199998	-21.860973197700002	0	0
36.075304780800003	-21.6488411634	0	0
27.691068608599998	-23.895390474799999	0	0
27.478936574199999	-24.262813936299999	0	0
27.781754856999999	-25.392947153000001	0	0
28.149178318400001	-25.605079187400001	0	0
36.533414490600002	-23.3585298759	0	0
25.392947153000001	-27.781754856999999	0	0
24.262813936299999	-27.478936574199999	0	0
23.895390474799999	-27.691068608599998	0	0
21.6488411634	-36.075304780800003	0	0
21.860973197700002	-36.442728242199998	0	0
22.991106414499999	-36.745546525000002	0	0
23.3585298759	-36.533414490600002	0	0
25.605079187400001	-28.149178318400001	0	0
2.2741421264000001	-36.586942656399998	0	0
1.6891421263999999	-37.600192378899997	0	0
1.7989497476	-38.009999999999998	0	0
9.3160502524000002	-42.350000000000001	0	0
9.7258578736000008	-42.240192378899998	0	0
10.3108578736	-41.226942656399999	0	0
10.2010502524	-40.817135035299998	0	0
2.6839497475999998	-36.477135035300002	0	0
-9.3160502524000002	-42.350000000000001	0	0
-1.7989497476	-38.009999999999998	0	0
-1.6891421263999999	-37.600192378899997	0	0
-2.2741421264000001	-36.586942656399998	0	0
-2.6839497475999998	-36.477135035300002	0	0
-10.2010502524	-40.817135035299998	0	0
-10.3108578736	-41.226942656399999	0	0
-9.7258578736000008	-42.240192378899998	0	0
-25.605079187400001	-28.149178318400001	0	0
-23.3585298759	-36.533414490600002	0	0
-22.991106414499999	-36.745546525000002	0	0
-21.860973197700002	-36.442728242199998	0	0
-21.6488411634	-36.075304780800003	0	0
-23.895390474799999	-27.691068608599998	0	0
-24.262813936299999	-27.478936574199999	0	0
-25.392947153000001	-27.781754856999999	0	0
-27.781754856999999	-25.392947153000001	0	0
-27.478936574199999	-24.262813936299999	0	0
-27.691068608599998	-23.895390474799999	0	0
-36.075304780800003	-21.6488411634	0	0
-36.442728242199998	-21.860973197700002	0	0
-36.745546525000002	-22.991106414499999	0	0
-36.533414490600002	-23.3585298759	0	0
-28.149178318400001	-25.605079187400001	0	0
-38.009999999999998	-1.7989497476	0	0
-42.350000000000001	-9.3160502524000002	0	0
-42.240192378899998	-9.7258578736000008	0	0
-41.226942656399999	-10.3108578736	0	0
-40.817135035299998	-10.2010502524	0	0
-36.477135035300002	-2.6839497475999998	0	0
-36.586942656399998	-2.2741421264000001	0	0
-37.600192378899997	-1.6891421263999999	0	0
-41.226942656399999	10.3108578736	0	0
-42.240192378899998	9.7258578736000008	0	0
-42.350000000000001	9.3160502524000002	0	0
-38.009999999999998	1.7989497476	0	0
-37.600192378899997	1.6891421263999999	0	0
-36.586942656399998	2.2741421264000001	0	0
-36.477135035300002	2.6839497475999998	0	0
-40.817135035299998	10.2010502524	0	0
-28.149178318400001	25.605079187400001	0	0
-36.533414490600002	23.3585298759	0	0
-36.745546525000002	22.991106414499999	0	0
-36.442728242199998	21.860973197700002	0	0
-36.075304780800003	21.6488411634	0	0
-27.691068608599998	23.895390474799999	0	0
-27.478936574199999	24.262813936299999	0	0
-27.781754856999999	25.392947153000001	0	0
-23.3585298759	36.533414490600002	0	0
-25.605079187400001	28.149178318400001	0	0
-25.392947153000001	27.781754856999999	0	0
-24.262813936299999	27.478936574199999	0	0
-23.895390474799999	27.691068608599998	0	0
-21.6488411634	36.075304780800003	0	0
-21.860973197700002	36.442728242199998	0	0
-22.991106414499999	36.745546525000002	0	0
-6.9663828357000002	45.267090807599999	0	0
-7.0120250449999997	45.563670838199997	0	0
-6.0516887644999997	46.408095599500001	0	0
-7.2080598914999996	55.275865224999997	0	0
-12.1320986565	54.407624336700003	0	0
-10.1857762331	45.679144438199998	0	0
-8.9945450390000001	45.214099073500002	0	0
-8.9359983416999995	44.919794452300003	0	0
-14.721095654100001	43.369682299300003	0	0
-14.8175450375	43.653830926399998	0	0
-14.0184312439	44.6521876232	0	0
-16.697106530599999	53.184434163399999	0	0
-21.395569634499999	51.474333446800003	0	0
-17.963131593899998	43.2164341127	0	0
-16.7092435982	42.965308958100003	0	0
-16.600480895600001	42.685642012700001	0	0
-22.028515430199999	40.154507940499997	0	0
-22.172841422099999	40.417591451699998	0	0
-21.559230783699999	41.539545521000001	0	0
-25.678820036899999	49.477020982299997	0	0
-30.0089470558	46.977020982299997	0	0
-25.194686291	39.4406143052	0	0
-23.916240245899999	39.411039671499999	0	0
-23.760566237799999	39.154507940499997	0	0
-28.666609911999998	35.719259176999998	0	0
-28.854427240100001	35.953283913100002	0	0
-28.444964005599999	37.1647453482	0	0
-33.880295590499998	44.266273555300003	0	0
-37.7105178061	41.0523355069	0	0
-31.6607131942	34.466411389999998	0	0
-30.396554036000001	34.659285887400003	0	0
-30.198698798199999	34.433683957600003	0	0
-34.433683957600003	30.198698798199999	0	0
-34.659285887400003	30.396554036000001	0	0
-34.466411389999998	31.6607131942	0	0
-41.0523355069	37.7105178061	0	0
-44.266273555300003	33.880295590499998	0	0
-37.1647453482	28.444964005599999	0	0
-35.953283913100002	28.854427240100001	0	0
-35.719259176999998	28.666609911999998	0	0
-39.154507940499997	23.760566237799999	0	0
-39.411039671499999	23.916240245899999	0	0
-39.4406143052	25.194686291	0	0
-46.977020982299997	30.0089470558	0	0
-49.477020982299997	25.678820036899999	0	0
-41.539545521000001	21.559230783699999	0	0
-40.417591451699998	22.172841422099999	0	0
-40.154507940499997	22.028515430199999	0	0
-42.685642012700001	16.600480895600001	0	0
-42.965308958100003	16.7092435982	0	0
-43.2164341127	17.963131593899998	0	0
-51.474333446800003	21.395569634499999	0	0
-53.184434163399999	16.697106530599999	0	0
-44.6521876232	14.0184312439	0	0
-43.653830926399998	14.8175450375	0	0
-43.369682299300003	14.721095654100001	0	0
-44.919794452300003	8.9359983416999995	0	0
-45.214099073500002	8.9945450390000001	0	0
-45.679144438199998	10.1857762331	0	0
-54.407624336700003	12.1320986565	0	0
-55.275865224999997	7.2080598914999996	0	0
-46.408095599500001	6.0516887644999997	0	0
-45.563670838199997	7.0120250449999997	0	0
-45.267090807599999	6.9663828357000002	0	0
-45.789081668000001	1	0	0
-46.089081667999999	1.0065517801999999	0	0
-46.753917074699999	2.0989312158	0	0
-55.6877670927	2.5	0	0
-55.6877670927	-2.5	0	0
-46.753917074699999	-2.0989312158	0	0
-46.089081667999999	-1.0065517801999999	0	0
-45.789081668000001	-1	0	0
-45.267090807599999	-6.9663828357000002	0	0
-45.563670838199997	-7.0120250449999997	0	0
-46.408095599500001	-6.0516887644999997	0	0
-55.275865224999997	-7.2080598914999996	0	0
-54.407624336700003	-12.1320986565	0	0
-45.679144438199998	-10.1857762331	0	0
-45.214099073500002	-8.9945450390000001	0	0
-44.919794452300003	-8.9359983416999995	0	0
-43.369682299300003	-14.721095654100001	0	0
-43.653830926399998	-14.8175450375	0	0
-44.6521876232	-14.0184312439	0	0
-53.184434163399999	-16.697106530599999	0	0
-51.474333446800003	-21.395569634499999	0	0
-43.2164341127	-17.963131593899998	0	0
-42.965308958100003	-16.7092435982	0	0
-42.685642012700001	-16.600480895600001	0	0
-40.154507940499997	-22.028515430199999	0	0
-40.417591451699998	-22.172841422099999	0	0
-41.539545521000001	-21.559230783699999	0	0
-49.477020982299997	-25.678820036899999	0	0
-46.977020982299997	-30.0089470558	0	0
-39.4406143052	-25.194686291	0	0
-39.411039671499999	-23.916240245899999	0	0
-39.154507940499997	-23.760566237799999	0	0
-35.719259176999998	-28.666609911999998	0	0
-35.953283913100002	-28.854427240100001	0	0
-37.1647453482	-28.444964005599999	0	0
-44.266273555300003	-33.880295590499998	0	0
-41.0523355069	-37.7105178061	0	0
-34.466411389999998	-31.6607131942	0	0
-34.659285887400003	-30.396554036000001	0	0
-34.433683957600003	-30.198698798199999	0	0
-30.198698798199999	-34.433683957600003	0	0
-30.396554036000001	-34.659285887400003	0	0
-31.6607131942	-34.466411389999998	0	0
-37.7105178061	-41.0523355069	0	0
-33.880295590499998	-44.266273555300003	0	0
-28.444964005599999	-37.1647453482	0	0
-28.854427240100001	-35.953283913100002	0	0
-28.666609911999998	-35.719259176999998	0	0
-23.760566237799999	-39.154507940499997	0	0
-23.916240245899999	-39.411039671499999	0	0
-25.194686291	-39.4406143052	0	0
-30.0089470558	-46.977020982299997	0	0
-25.678820036899999	-49.477020982299997	0	0
-21.559230783699999	-41.539545521000001	0	0
-22.172841422099999	-40.417591451699998	0	0
-22.028515430199999	-40.154507940499997	0	0
-16.600480895600001	-42.685642012700001	0	0
-16.7092435982	-42.965308958100003	0	0
-17.963131593899998	-43.2164341127	0	0
-21.395569634499999	-51.474333446800003	0	0
-16.697106530599999	-53.184434163399999	0	0
-14.0184312439	-44.6521876232	0	0
-14.8175450375	-43.653830926399998	0	0
-14.721095654100001	-43.369682299300003	0	0
-8.9359983416999995	-44.919794452300003	0	0
-8.9945450390000001	-45.214099073500002	0	0
-10.1857762331	-45.679144438199998	0	0
-12.1320986565	-54.407624336700003	0	0
-7.2080598914999996	-55.275865224999997	0	0
-6.0516887644999997	-46.408095599500001	0	0
-7.0120250449999997	-45.563670838199997	0	0
-6.9663828357000002	-45.267090807599999	0	0
-1	-45.789081668000001	0	0
-1.0065517801999999	-46.089081667999999	0	0
-2.0989312158	-46.753917074699999	0	0
-2.5	-55.6877670927	0	0
2.5	-55.6877670927	0	0
2.0989312158	-46.753917074699999	0	0
1.0065517801999999	-46.089081667999999	0	0
1	-45.789081668000001	0	0
6.9663828357000002	-45.267090807599999	0	0
7.0120250449999997	-45.563670838199997	0	0
6.0516887644999997	-46.408095599500001	0	0
7.2080598914999996	-55.275865224999997	0	0
12.1320986565	-54.407624336700003	0	0
10.1857762331	-45.679144438199998	0	0
8.9945450390000001	-45.214099073500002	0	0
8.9359983416999995	-44.919794452300003	0	0
14.721095654100001	-43.369682299300003	0	0
14.8175450375	-43.653830926399998	0	0
14.0184312439	-44.6521876232	0	0
16.697106530599999	-53.184434163399999	0	0
21.395569634499999	-51.474333446800003	0	0
17.963131593899998	-43.2164341127	0	0
16.7092435982	-42.965308958100003	0	0
16.600480895600001	-42.685642012700001	0	0
22.028515430199999	-40.154507940499997	0	0
22.172841422099999	-40.417591451699998	0	0
21.559230783699999	-41.539545521000001	0	0
25.678820036899999	-49.477020982299997	0	0
30.0089470558	-46.977020982299997	0	0
25.194686291	-39.4406143052	0	0
23.916240245899999	-39.411039671499999	0	0
23.760566237799999	-39.154507940499997	0	0
28.666609911999998	-35.719259176999998	0	0
28.854427240100001	-35.953283913100002	0	0
28.444964005599999	-37.1647453482	0	0
33.880295590499998	-44.266273555300003	0	0
37.7105178061	-41.0523355069	0	0
31.6607131942	-34.466411389999998	0	0
30.396554036000001	-34.659285887400003	0	0
30.198698798199999	-34.433683957600003	0	0
34.433683957600003	-30.198698798199999	0	0
34.659285887400003	-30.396554036000001	0	0
34.466411389999998	-31.6607131942	0	0
41.0523355069	-37.7105178061	0	0
44.266273555300003	-33.880295590499998	0	0
37.1647453482	-28.444964005599999	0	0
35.953283913100002	-28.854427240100001	0	0
35.719259176999998	-28.666609911999998	0	0
39.154507940499997	-23.760566237799999	0	0
39.411039671499999	-23.916240245899999	0	0
39.4406143052	-25.194686291	0	0
46.977020982299997	-30.0089470558	0	0
49.477020982299997	-25.678820036899999	0	0
41.539545521000001	-21.559230783699999	0	0
40.417591451699998	-22.172841422099999	0	0
40.154507940499997	-22.028515430199999	0	0
42.685642012700001	-16.600480895600001	0	0
42.965308958100003	-16.7092435982	0	0
43.2164341127	-17.963131593899998	0	0
51.474333446800003	-21.395569634499999	0	0
53.184434163399999	-16.697106530599999	0	0
44.6521876232	-14.0184312439	0	0
43.653830926399998	-14.8175450375	0	0
43.369682299300003	-14.721095654100001	0	0
44.919794452300003	-8.9359983416999995	0	0
45.214099073500002	-8.9945450390000001	0	0
45.679144438199998	-10.1857762331	0	0
54.407624336700003	-12.1320986565	0	0
55.275865224999997	-7.2080598914999996	0	0
46.408095599500001	-6.0516887644999997	0	0
45.563670838199997	-7.0120250449999997	0	0
45.267090807599999	-6.9663828357000002	0	0
45.789081668000001	-1	0	0
46.089081667999999	-1.0065517801999999	0	0
46.753917074699999	-2.0989312158	0	0
55.6877670927	-2.5	0	0
55.6877670927	2.5	0	0
46.753917074699999	2.0989312158	0	0
46.089081667999999	1.0065517801999999	0	0
45.789081668000001	1	0	0
45.267090807599999	6.9663828357000002	0	0
45.563670838199997	7.0120250449999997	0	0
46.408095599500001	6.0516887644999997	0	0
55.275865224999997	7.2080598914999996	0	0
54.407624336700003	12.1320986565	0	0
45.679144438199998	10.1857762331	0	0
45.214099073500002	8.9945450390000001	0	0
44.919794452300003	8.9359983416999995	0	0
43.369682299300003	14.721095654100001	0	0
43.653830926399998	14.8175450375	0	0
44.6521876232	14.0184312439	0	0
53.184434163399999	16.697106530599999	0	0
51.474333446800003	21.395569634499999	0	0
43.2164341127	17.963131593899998	0	0
42.965308958100003	16.7092435982	0	0
42.685642012700001	16.600480895600001	0	0
40.154507940499997	22.028515430199999	0	0
40.417591451699998	22.172841422099999	0	0
41.539545521000001	21.559230783699999	0	0
49.477020982299997	25.678820036899999	0	0
46.977020982299997	30.0089470558	0	0
39.4406143052	25.194686291	0	0
39.411039671499999	23.916240245899999	0	0
39.154507940499997	23.760566237799999	0	0
35.719259176999998	28.666609911999998	0	0
35.953283913100002	28.854427240100001	0	0
37.1647453482	28.444964005599999	0	0
44.266273555300003	33.880295590499998	0	0
41.0523355069	37.7105178061	0	0
34.466411389999998	31.6607131942	0	0
34.659285887400003	30.396554036000001	0	0
34.433683957600003	30.198698798199999	0	0
30.198698798199999	34.433683957600003	0	0
30.396554036000001	34.659285887400003	0	0
31.6607131942	34.466411389999998	0	0
37.7105178061	41.0523355069	0	0
33.880295590499998	44.266273555300003	0	0
28.444964005599999	37.1647453482	0	0
28.854427240100001	35.953283913100002	0	0
28.666609911999998	35.719259176999998	0	0
23.760566237799999	39.154507940499997	0	0
23.916240245899999	39.411039671499999	0	0
25.194686291	39.4406143052	0	0
30.0089470558	46.977020982299997	0	0
25.678820036899999	49.477020982299997	0	0
21.559230783699999	41.539545521000001	0	0
22.172841422099999	40.417591451699998	0	0
22.028515430199999	40.154507940499997	0	0
16.600480895600001	42.685642012700001	0	0
16.7092435982	42.965308958100003	0	0
17.963131593899998	43.2164341127	0	0
21.395569634499999	51.474333446800003	0	0
16.697106530599999	53.184434163399999	0	0
14.0184312439	44.6521876232	0	0
14.8175450375	43.653830926399998	0	0
14.721095654100001	43.369682299300003	0	0
8.9359983416999995	44.919794452300003	0	0
8.9945450390000001	45.214099073500002	0	0
10.1857762331	45.679144438199998	0	0
12.1320986565	54.407624336700003	0	0
7.2080598914999996	55.275865224999997	0	0
6.0516887644999997	46.408095599500001	0	0
7.0120250449999997	45.563670838199997	0	0
6.9663828357000002	45.267090807599999	0	0
1	45.789081668000001	0	0
1.0065517801999999	46.089081667999999	0	0
2.0989312158	46.753917074699999	0	0
2.5	55.6877670927	0	0
-2.5	55.6877670927	0	0
-2.0989312158	46.753917074699999	0	0
-1.0065517801999999	46.089081667999999	0	0
-1	45.789081668000001	0	0
7.4999999999999991	0	0	0
-7.4999999999999991	0	0	0
45.000000000000092	0	0	0
-45.000000000000092	0	0	0
63.999999999999993	0	0	0
-63.999999999999993	0	0	0
-10.124126000093989	57.416771723954234	0	0
-19.940635554786738	54.786445916320801	0	0
-29.151258988526507	50.49146167275515	0	0
-37.476136169167511	44.662319916126819	0	0
-44.662319916126819	37.476136169167511	0	0
-50.49146167275515	29.151258988526507	0	0
-54.786445916320801	19.940635554786738	0	0
-57.416771723954234	10.124126000093989	0	0
-58.302517977053007	3.0647006304066807e-016	0	0
-57.416771723954234	-10.124126000093989	0	0
-54.786445916320801	-19.940635554786738	0	0
-50.49146167275515	-29.151258988526507	0	0
-44.662319916126819	-37.476136169167511	0	0
-37.476136169167511	-44.662319916126819	0	0
-29.151258988526507	-50.49146167275515	0	0
-19.940635554786738	-54.786445916320801	0	0
-10.124126000093989	-57.416771723954234	0	0
-4.5970509456100209e-016	-58.302517977053007	0	0
10.124126000093987	-57.416771723954227	0	0
19.940635554786734	-54.786445916320794	0	0
29.151258988526504	-50.49146167275515	0	0
37.476136169167503	-44.662319916126812	0	0
44.662319916126819	-37.476136169167518	0	0
50.49146167275515	-29.151258988526507	0	0
54.786445916320794	-19.940635554786734	0	0
57.416771723954227	-10.124126000093991	0	0
58.302517977053007	-6.1294012608133615e-016	0	0
57.416771723954227	10.124126000093987	0	0
54.786445916320801	19.940635554786738	0	0
50.49146167275515	29.151258988526504	0	0
44.662319916126819	37.476136169167511	0	0
37.476136169167511	44.662319916126819	0	0
29.151258988526504	50.49146167275515	0	0
19.940635554786738	54.786445916320794	0	0
10.124126000093989	57.416771723954227	0	0
7.6617515760167021e-016	58.302517977053007	0	0
[NumSegments] = 316
0	1	-1	0	0	0
2	3	-1	0	0	0
4	5	-1	0	0	0
6	7	-1	0	0	0
8	9	-1	0	0	0
10	11	-1	0	0	0
12	13	-1	0	0	0
14	15	-1	0	0	0
16	17	-1	0	0	0
18	19	-1	0	0	0
20	21	-1	0	0	0
22	23	-1	0	0	0
24	25	-1	0	0	0
26	27	-1	0	0	0
28	29	-1	0	0	0
30	31	-1	0	0	0
32	33	-1	0	0	0
34	35	-1	0	0	0
36	37	-1	0	0	0
38	39	-1	0	0	0
40	41	-1	0	0	0
42	43	-1	0	0	0
44	45	-1	0	0	0
46	47	-1	0	0	0
48	49	-1	0	0	0
50	51	-1	0	0	0
52	53	-1	0	0	0
54	55	-1	0	0	0
56	57	-1	0	0	0
58	59	-1	0	0	0
60	61	-1	0	0	0
62	63	-1	0	0	0
64	65	-1	0	0	0
66	67	-1	0	0	0
68	69	-1	0	0	0
70	71	-1	0	0	0
72	73	-1	0	0	0
74	75	-1	0	0	0
76	77	-1	0	0	0
78	79	-1	0	0	0
80	81	-1	0	0	0
82	83	-1	0	0	0
84	85	-1	0	0	0
86	87	-1	0	0	0
88	89	-1	0	0	0
90	91	-1	0	0	0
92	93	-1	0	0	0
94	95	-1	0	0	0
96	97	-1	0	0	0
98	99	-1	0	0	0
100	101	-1	0	0	0
102	103	-1	0	0	0
104	105	-1	0	0	0
106	107	-1	0	0	0
108	109	-1	0	0	0
110	111	-1	0	0	0
112	113	-1	0	0	0
114	115	-1	0	0	0
116	117	-1	0	0	0
118	119	-1	0	0	0
120	121	-1	0	0	0
122	123	-1	0	0	0
124	125	-1	0	0	0
126	127	-1	0	0	0
128	129	-1	0	0	0
129	130	-1	0	0	0
130	131	-1	0	0	0
132	133	-1	0	0	0
133	134	-1	0	0	0
134	135	-1	0	0	0
136	137	-1	0	0	0
137	138	-1	0	0	0
138	139	-1	0	0	0
140	141	-1	0	0	0
141	142	-1	0	0	0
142	143	-1	0	0	0
144	145	-1	0	0	0
145	146	-1	0	0	0
146	147	-1	0	0	0
148	149	-1	0	0	0
149	150	-1	0	0	0
150	151	-1	0	0	0
152	153	-1	0	0	0
153	154	-1	0	0	0
154	155	-1	0	0	0
156	157	-1	0	0	0
157	158	-1	0	0	0
158	159	-1	0	0	0
160	161	-1	0	0	0
161	162	-1	0	0	0
162	163	-1	0	0	0
164	165	-1	0	0	0
165	166	-1	0	0	0
166	167	-1	0	0	0
168	169	-1	0	0	0
169	170	-1	0	0	0
170	171	-1	0	0	0
172	173	-1	0	0	0
173	174	-1	0	0	0
174	175	-1	0	0	0
176	177	-1	0	0	0
177	178	-1	0	0	0
178	179	-1	0	0	0
180	181	-1	0	0	0
181	182	-1	0	0	0
182	183	-1	0	0	0
184	185	-1	0	0	0
185	186	-1	0	0	0
186	187	-1	0	0	0
188	189	-1	0	0	0
189	190	-1	0	0	0
190	191	-1	0	0	0
192	193	-1	0	0	0
193	194	-1	0	0	0
194	195	-1	0	0	0
196	197	-1	0	0	0
197	198	-1	0	0	0
198	199	-1	0	0	0
200	201	-1	0	0	0
201	202	-1	0	0	0
202	203	-1	0	0	0
204	205	-1	0	0	0
205	206	-1	0	0	0
206	207	-1	0	0	0
208	209	-1	0	0	0
209	210	-1	0	0	0
210	211	-1	0	0	0
212	213	-1	0	0	0
213	214	-1	0	0	0
214	215	-1	0	0	0
216	217	-1	0	0	0
217	218	-1	0	0	0
218	219	-1	0	0	0
220	221	-1	0	0	0
221	222	-1	0	0	0
222	223	-1	0	0	0
224	225	-1	0	0	0
225	226	-1	0	0	0
226	227	-1	0	0	0
228	229	-1	0	0	0
229	230	-1	0	0	0
230	231	-1	0	0	0
232	233	-1	0	0	0
233	234	-1	0	0	0
234	235	-1	0	0	0
236	237	-1	0	0	0
237	238	-1	0	0	0
238	239	-1	0	0	0
240	241	-1	0	0	0
241	242	-1	0	0	0
242	243	-1	0	0	0
244	245	-1	0	0	0
245	246	-1	0	0	0
246	247	-1	0	0	0
248	249	-1	0	0	0
249	250	-1	0	0	0
250	251	-1	0	0	0
252	253	-1	0	0	0
253	254	-1	0	0	0
254	255	-1	0	0	0
256	257	-1	0	0	0
257	258	-1	0	0	0
258	259	-1	0	0	0
260	261	-1	0	0	0
261	262	-1	0	0	0
262	263	-1	0	0	0
264	265	-1	0	0	0
265	266	-1	0	0	0
266	267	-1	0	0	0
268	269	-1	0	0	0
269	270	-1	0	0	0
270	271	-1	0	0	0
272	273	-1	0	0	0
273	274	-1	0	0	0
274	275	-1	0	0	0
276	277	-1	0	0	0
277	278	-1	0	0	0
278	279	-1	0	0	0
280	281	-1	0	0	0
281	282	-1	0	0	0
282	283	-1	0	0	0
284	285	-1	0	0	0
285	286	-1	0	0	0
286	287	-1	0	0	0
288	289	-1	0	0	0
289	290	-1	0	0	0
290	291	-1	0	0	0
292	293	-1	0	0	0
293	294	-1	0	0	0
294	295	-1	0	0	0
296	297	-1	0	0	0
297	298	-1	0	0	0
298	299	-1	0	0	0
300	301	-1	0	0	0
301	302	-1	0	0	0
302	303	-1	0	0	0
304	305	-1	0	0	0
305	306	-1	0	0	0
306	307	-1	0	0	0
308	309	-1	0	0	0
309	310	-1	0	0	0
310	311	-1	0	0	0
312	313	-1	0	0	0
313	314	-1	0	0	0
314	315	-1	0	0	0
316	317	-1	0	0	0
317	318	-1	0	0	0
318	319	-1	0	0	0
320	321	-1	0	0	0
321	322	-1	0	0	0
322	323	-1	0	0	0
324	325	-1	0	0	0
325	326	-1	0	0	0
326	327	-1	0	0	0
328	329	-1	0	0	0
329	330	-1	0	0	0
330	331	-1	0	0	0
332	333	-1	0	0	0
333	334	-1	0	0	0
334	335	-1	0	0	0
336	337	-1	0	0	0
337	338	-1	0	0	0
338	339	-1	0	0	0
340	341	-1	0	0	0
341	342	-1	0	0	0
342	343	-1	0	0	0
344	345	-1	0	0	0
345	346	-1	0	0	0
346	347	-1	0	0	0
348	349	-1	0	0	0
349	350	-1	0	0	0
350	351	-1	0	0	0
352	353	-1	0	0	0
353	354	-1	0	0	0
354	355	-1	0	0	0
356	357	-1	0	0	0
357	358	-1	0	0	0
358	359	-1	0	0	0
360	361	-1	0	0	0
361	362	-1	0	0	0
362	363	-1	0	0	0
364	365	-1	0	0	0
365	366	-1	0	0	0
366	367	-1	0	0	0
368	369	-1	0	0	0
369	370	-1	0	0	0
370	371	-1	0	0	0
372	373	-1	0	0	0
373	374	-1	0	0	0
374	375	-1	0	0	0
376	377	-1	0	0	0
377	378	-1	0	0	0
378	379	-1	0	0	0
380	381	-1	0	0	0
381	382	-1	0	0	0
382	383	-1	0	0	0
384	385	-1	0	0	0
385	386	-1	0	0	0
386	387	-1	0	0	0
388	389	-1	0	0	0
389	390	-1	0	0	0
390	391	-1	0	0	0
392	393	-1	0	0	0
393	394	-1	0	0	0
394	395	-1	0	0	0
396	397	-1	0	0	0
397	398	-1	0	0	0
398	399	-1	0	0	0
400	401	-1	0	0	0
401	402	-1	0	0	0
402	403	-1	0	0	0
404	405	-1	0	0	0
405	406	-1	0	0	0
406	407	-1	0	0	0
408	409	-1	0	0	0
409	410	-1	0	0	0
410	411	-1	0	0	0
412	413	-1	0	0	0
413	414	-1	0	0	0
414	415	-1	0	0	0
191	184	-1	0	0	0
199	192	-1	0	0	0
183	176	-1	0	0	0
175	168	-1	0	0	0
167	160	-1	0	0	0
159	152	-1	0	0	0
151	144	-1	0	0	0
143	136	-1	0	0	0
135	128	-1	0	0	0
415	408	-1	0	0	0
407	400	-1	0	0	0
399	392	-1	0	0	0
391	384	-1	0	0	0
383	376	-1	0	0	0
375	368	-1	0	0	0
367	360	-1	0	0	0
359	352	-1	0	0	0
351	344	-1	0	0	0
343	336	-1	0	0	0
335	328	-1	0	0	0
327	320	-1	0	0	0
319	312	-1	0	0	0
311	304	-1	0	0	0
303	296	-1	0	0	0
295	288	-1	0	0	0
287	280	-1	0	0	0
279	272	-1	0	0	0
271	264	-1	0	0	0
263	256	-1	0	0	0
255	248	-1	0	0	0
247	240	-1	0	0	0
239	232	-1	0	0	0
231	224	-1	0	0	0
223	216	-1	0	0	0
215	208	-1	0	0	0
207	200	-1	0	0	0
[NumArcSegments] = 178
416	417	180	5	0	0	0	5
417	416	180	5	0	0	0	5
418	419	180	5	0	0	0	5
419	418	180	5	0	0	0	5
7	0	90	5	0	0	0	5
1	2	90	5	0	0	0	5
3	4	90	5	0	0	0	5
5	6	90	5	0	0	0	5
15	8	90	5	0	0	0	5
9	10	90	5	0	0	0	5
11	12	90	5	0	0	0	5
13	14	90	5	0	0	0	5
23	16	90	5	0	0	0	5
17	18	90	5	0	0	0	5
19	20	90	5	0	0	0	5
21	22	90	5	0	0	0	5
31	24	90	5	0	0	0	5
25	26	90	5	0	0	0	5
27	28	90	5	0	0	0	5
29	30	90	5	0	0	0	5
39	32	90	5	0	0	0	5
33	34	90	5	0	0	0	5
35	36	90	5	0	0	0	5
37	38	90	5	0	0	0	5
47	40	90	5	0	0	0	5
41	42	90	5	0	0	0	5
43	44	90	5	0	0	0	5
45	46	90	5	0	0	0	5
55	48	90	5	0	0	0	5
49	50	90	5	0	0	0	5
51	52	90	5	0	0	0	5
53	54	90	5	0	0	0	5
63	56	90	5	0	0	0	5
57	58	90	5	0	0	0	5
59	60	90	5	0	0	0	5
61	62	90	5	0	0	0	5
71	64	90	5	0	0	0	5
65	66	90	5	0	0	0	5
67	68	90	5	0	0	0	5
69	70	90	5	0	0	0	5
79	72	90	5	0	0	0	5